Version 4
SHEET 1 880 680
WIRE -192 -16 -464 -16
WIRE 32 -16 -80 -16
WIRE -464 16 -464 -16
WIRE -80 16 -80 -16
WIRE -384 32 -400 32
WIRE -192 32 -192 -16
WIRE -192 32 -208 32
WIRE -160 32 -192 32
WIRE 32 32 32 -16
WIRE 48 32 32 32
WIRE 272 32 224 32
WIRE -464 128 -464 96
WIRE -400 128 -400 32
WIRE -400 128 -464 128
WIRE -384 128 -400 128
WIRE -192 128 -208 128
WIRE -160 128 -160 32
WIRE -160 128 -192 128
WIRE 48 128 32 128
WIRE 272 128 272 32
WIRE 272 128 224 128
WIRE -80 160 -80 96
WIRE 32 160 32 128
WIRE 32 160 -80 160
WIRE -464 176 -464 128
WIRE -80 192 -80 160
FLAG -464 176 0
FLAG -464 -16 Common
FLAG -80 192 0
FLAG -80 -16 Differential
SYMBOL current -464 96 M180
WINDOW 0 16 87 Left 2
WINDOW 3 24 0 Left 2
WINDOW 123 17 -10 Left 2
WINDOW 39 0 0 Left 2
SYMATTR InstName I1
SYMATTR Value ""
SYMATTR Value2 AC 1
SYMBOL current -80 96 M180
WINDOW 0 18 82 Left 2
WINDOW 3 24 0 Left 2
WINDOW 123 16 -9 Left 2
WINDOW 39 0 0 Left 2
SYMATTR InstName I2
SYMATTR Value ""
SYMATTR Value2 AC 1
SYMBOL userLib\\WE-CNSW -288 80 R0
SYMATTR InstName U1
SYMBOL userLib\\WE-CNSW 128 80 R0
SYMATTR InstName U2
TEXT -272 240 Left 2 !.ac dec 100 100K 1.8G
TEXT -352 192 Left 2 ;Common Mode
TEXT 16 192 Left 2 ;Differential Mode
TEXT -528 288 Left 2 ;This example schematic is supplied for informational/educational purposes only.
