Version 4
SHEET 1 1656 1480
WIRE -1072 -1104 -1168 -1104
WIRE -992 -1104 -1072 -1104
WIRE -1168 -1072 -1168 -1104
WIRE -992 -1072 -992 -1104
WIRE -992 -1056 -992 -1072
WIRE -992 -1008 -992 -1024
WIRE -1168 -976 -1168 -992
WIRE -992 -976 -992 -1008
FLAG -1168 -976 0
FLAG -1072 -1104 Z
FLAG -992 -976 0
SYMBOL current -1168 -992 R180
WINDOW 123 -22 4 Right 2
WINDOW 39 0 0 Left 2
WINDOW 0 -20 82 Right 2
WINDOW 3 -35 41 Right 2
SYMATTR Value2 AC 1
SYMATTR InstName I1
SYMATTR Value DC {Idc}
SYMBOL userLib\\WE-CBF -992 -1040 R90
SYMATTR InstName U1
TEXT -1208 -928 Left 2 !.ac dec 10 1MEG 1g
TEXT -1208 -896 Left 2 !.step param Idc 0 3 .5
TEXT -1216 -856 Left 2 ;This example schematic is supplied for informational/educational purposes only.
