Version 4
SHEET 1 880 680
WIRE -400 -224 -432 -224
WIRE 112 -224 -320 -224
WIRE 112 -192 112 -224
WIRE -432 -176 -432 -224
WIRE 112 -96 112 -112
WIRE -432 -64 -432 -96
WIRE 256 -48 224 -48
WIRE 432 -48 336 -48
WIRE 640 -48 624 -48
WIRE -224 -32 -240 -32
WIRE -16 -32 -32 -32
WIRE -400 16 -432 16
WIRE -240 16 -240 -32
WIRE -240 16 -320 16
WIRE -16 16 -16 -32
WIRE 112 16 -16 16
WIRE 432 48 384 48
WIRE 640 48 640 -48
WIRE 640 48 624 48
WIRE -240 64 -240 16
WIRE -224 64 -240 64
WIRE -16 64 -16 16
WIRE -16 64 -32 64
WIRE 112 80 112 16
WIRE 224 96 224 -48
WIRE -432 112 -432 16
WIRE 384 112 384 48
WIRE 112 208 112 160
WIRE 224 208 224 176
WIRE 384 208 384 192
WIRE -432 224 -432 192
FLAG -432 224 0
FLAG 112 208 0
FLAG -432 -64 0
FLAG 112 -96 0
FLAG 112 -224 REF
FLAG 112 16 COMM
FLAG 224 208 0
FLAG 384 208 0
FLAG 384 48 DIFF
SYMBOL res -304 0 R90
WINDOW 0 0 56 VBottom 2
WINDOW 3 32 56 VTop 2
SYMATTR InstName R1
SYMATTR Value 50
SYMBOL res 96 64 R0
SYMATTR InstName R2
SYMATTR Value 50
SYMBOL res 128 -96 R180
WINDOW 0 36 76 Left 2
WINDOW 3 36 40 Left 2
SYMATTR InstName R3
SYMATTR Value 50
SYMBOL res -416 -208 R270
WINDOW 0 32 56 VTop 2
WINDOW 3 0 56 VBottom 2
SYMATTR InstName R4
SYMATTR Value 50
SYMBOL voltage -432 -192 R0
WINDOW 123 40 70 Left 2
WINDOW 39 0 0 Left 2
WINDOW 0 38 35 Left 2
SYMATTR Value2 AC 1
SYMATTR InstName V1
SYMATTR Value ""
SYMBOL voltage -432 96 R0
WINDOW 123 35 72 Left 2
WINDOW 39 0 0 Left 2
WINDOW 0 40 38 Left 2
SYMATTR Value2 AC 1
SYMATTR InstName V2
SYMATTR Value ""
SYMBOL res 352 -64 R90
WINDOW 0 0 56 VBottom 2
WINDOW 3 32 56 VTop 2
SYMATTR InstName R5
SYMATTR Value 50
SYMBOL res 400 208 R180
WINDOW 0 36 76 Left 2
WINDOW 3 36 40 Left 2
SYMATTR InstName R6
SYMATTR Value 50
SYMBOL voltage 224 80 R0
WINDOW 123 34 72 Left 2
WINDOW 39 0 0 Left 2
WINDOW 0 42 46 Left 2
SYMATTR Value2 AC 1
SYMATTR InstName V3
SYMATTR Value ""
SYMBOL userLib\\WE-FC -128 16 R0
SYMATTR InstName U1
SYMBOL userLib\\WE-FC 528 0 R0
SYMATTR InstName U2
TEXT -272 240 Left 2 !.ac dec 100 100k 100MEG
TEXT -312 280 Left 2 ;This example schematic is supplied for informational/educational purposes only.
TEXT -272 152 Left 2 ;common mode attenuation
TEXT 424 152 Left 2 ;differential mode attenuation
TEXT -240 -176 Left 2 ;Reference circuit
