Version 4
SHEET 1 880 680
WIRE -160 -32 -480 -32
WIRE 48 0 -32 0
WIRE -480 16 -480 -32
WIRE -384 16 -416 16
WIRE -352 16 -384 16
WIRE -208 16 -224 16
WIRE -160 16 -160 -32
WIRE -160 16 -192 16
WIRE -32 16 -32 0
WIRE 48 16 48 0
WIRE 64 16 48 16
WIRE 96 16 64 16
WIRE 240 16 224 16
WIRE 304 16 256 16
WIRE -416 112 -416 16
WIRE -384 112 -416 112
WIRE -352 112 -384 112
WIRE -192 112 -224 112
WIRE -160 112 -160 16
WIRE -160 112 -192 112
WIRE 64 112 48 112
WIRE 96 112 64 112
WIRE 240 112 224 112
WIRE 304 112 304 16
WIRE 304 112 256 112
WIRE -480 128 -480 96
WIRE -384 128 -384 112
WIRE -384 128 -480 128
WIRE -32 128 -32 96
WIRE 48 128 48 112
WIRE 48 128 -32 128
WIRE -480 144 -480 128
WIRE -32 144 -32 128
FLAG -480 144 0
FLAG -480 -32 Common
FLAG -32 144 0
FLAG -32 0 Differential
SYMBOL current -480 96 M180
WINDOW 0 23 78 Left 2
WINDOW 123 20 -3 Left 2
WINDOW 39 0 0 Left 2
SYMATTR InstName I1
SYMATTR Value2 AC 1
SYMATTR Value ""
SYMBOL current -32 96 M180
WINDOW 0 17 83 Left 2
WINDOW 123 15 -4 Left 2
WINDOW 39 0 0 Left 2
SYMATTR InstName I2
SYMATTR Value2 AC 1
SYMATTR Value ""
SYMBOL WE-SLM -288 64 R0
SYMATTR InstName U1
SYMBOL WE-SLM 160 64 R0
SYMATTR InstName U2
TEXT -224 232 Left 2 !.ac dec 1000 100K 1.8G
TEXT -376 176 Left 2 ;Common Mode
TEXT 64 168 Left 2 ;Differential Mode
TEXT -240 -80 Left 2 ;744242101
TEXT -528 272 Left 2 ;This example schematic is supplied for informational/educational purposes only.
