Version 4
SHEET 1 880 680
WIRE 256 -64 144 -64
WIRE 384 -64 320 -64
WIRE 144 32 144 -64
WIRE 240 32 144 32
WIRE 384 32 384 -64
WIRE 384 32 320 32
WIRE 816 80 816 64
WIRE 224 112 224 96
WIRE 224 160 224 112
WIRE 816 160 816 80
WIRE 16 176 -224 176
WIRE 144 176 144 32
WIRE 144 176 96 176
WIRE 192 176 144 176
WIRE -224 192 -224 176
WIRE 384 192 384 32
WIRE 384 192 256 192
WIRE 416 192 384 192
WIRE 192 208 144 208
WIRE 144 272 144 208
WIRE 144 272 80 272
WIRE 224 272 224 224
WIRE -224 320 -224 272
WIRE 816 320 816 240
WIRE 80 336 80 272
WIRE 144 352 144 272
WIRE 80 448 80 416
WIRE 144 448 144 416
FLAG 816 320 0
FLAG 816 80 V+
FLAG -224 320 0
FLAG 144 448 0
FLAG 80 448 0
FLAG 224 272 0
FLAG 224 112 V+
FLAG 416 192 vout
SYMBOL Opamps\\opamp2 224 128 R0
SYMATTR InstName U1
SYMATTR Value OPA2344
SYMBOL res 112 160 R90
WINDOW 0 0 56 VBottom 2
WINDOW 3 32 56 VTop 2
SYMATTR InstName R1
SYMATTR Value 22k
SYMBOL res 336 16 R90
WINDOW 0 0 56 VBottom 2
WINDOW 3 32 56 VTop 2
SYMATTR InstName R2
SYMATTR Value 22k
SYMBOL res 96 432 R180
WINDOW 0 36 76 Left 2
WINDOW 3 36 40 Left 2
SYMATTR InstName R3
SYMATTR Value 1k
SYMBOL cap 128 352 R0
SYMATTR InstName C1
SYMATTR Value 0.1µf
SYMBOL cap 320 -80 R90
WINDOW 0 0 32 VBottom 2
WINDOW 3 32 32 VTop 2
SYMATTR InstName C2
SYMATTR Value 100pF
SYMBOL voltage 816 144 R0
WINDOW 123 0 0 Left 0
WINDOW 39 0 0 Left 0
SYMATTR InstName V1
SYMATTR Value 5V
SYMBOL voltage -224 176 R0
WINDOW 123 0 0 Left 0
WINDOW 39 0 0 Left 0
SYMATTR InstName V2
SYMATTR Value 200mV
TEXT 528 -72 Left 2 !.inc opa2344.lib
TEXT 424 448 Left 2 !.tran 0 100ms 0 20ms startup
