Version 4
SHEET 1 1220 680
WIRE 560 -192 -208 -192
WIRE 816 -192 688 -192
WIRE 960 -192 880 -192
WIRE 1056 -192 960 -192
WIRE 1152 -192 1056 -192
WIRE 1152 -176 1152 -192
WIRE 560 -144 512 -144
WIRE 768 -144 688 -144
WIRE 960 -128 960 -192
WIRE 512 -48 512 -144
WIRE 768 -32 768 -144
WIRE 960 -32 960 -64
WIRE 960 -32 768 -32
WIRE 1152 -32 1152 -96
WIRE 624 -16 624 -96
WIRE 768 -16 768 -32
WIRE 1056 0 1056 -192
WIRE 464 32 16 32
WIRE 64 96 -144 96
WIRE 1056 96 1056 80
WIRE 1056 96 240 96
WIRE 64 128 -96 128
WIRE 416 128 240 128
WIRE 16 160 16 32
WIRE 64 160 16 160
WIRE 368 160 240 160
WIRE -96 176 -96 128
WIRE 64 192 16 192
WIRE 304 192 240 192
WIRE -208 272 -208 -192
WIRE 304 272 304 192
WIRE 304 272 -208 272
WIRE 416 272 416 128
WIRE 512 272 512 48
WIRE 512 272 416 272
WIRE 1056 288 1056 96
WIRE -208 304 -208 272
WIRE -96 304 -96 240
WIRE 16 304 16 192
WIRE 512 304 512 272
WIRE 304 320 304 272
WIRE 416 320 416 272
WIRE 1056 416 1056 368
WIRE -208 432 -208 384
WIRE -144 432 -144 96
WIRE -96 432 -96 384
WIRE 16 432 16 384
WIRE 304 432 304 384
WIRE 368 432 368 160
WIRE 416 432 416 384
WIRE 512 432 512 384
FLAG -208 432 0
FLAG -96 432 0
FLAG 16 432 0
FLAG -144 432 0
FLAG 304 432 0
FLAG 368 432 0
FLAG 416 432 0
FLAG 512 432 0
FLAG 1056 416 0
FLAG 1152 -32 0
FLAG 624 -16 0
FLAG 768 -16 0
SYMBOL FLEX_7491961_1_25 624 -160 R0
SYMATTR InstName U2
SYMBOL diode 816 -176 R270
WINDOW 0 32 32 VTop 2
WINDOW 3 0 32 VBottom 2
SYMATTR InstName D1
SYMATTR Value RFN10NS3S
SYMBOL cap 944 -128 R0
SYMATTR InstName C1
SYMATTR Value 0.22µF
SYMBOL cap 400 320 R0
SYMATTR InstName C2
SYMATTR Value 0.01µF
SYMBOL cap 288 320 R0
SYMATTR InstName C3
SYMATTR Value 100µF
SYMBOL cap -112 176 R0
SYMATTR InstName C4
SYMATTR Value 22nF
SYMBOL res -112 288 R0
SYMATTR InstName R1
SYMATTR Value 4.7k
SYMBOL res 0 288 R0
SYMATTR InstName R2
SYMATTR Value 27k
SYMBOL res 496 288 R0
SYMATTR InstName R3
SYMATTR Value 0.05
SYMBOL res 1040 272 R0
SYMATTR InstName R4
SYMATTR Value 3.32k
SYMBOL res 1040 -16 R0
SYMATTR InstName R5
SYMATTR Value 487k
SYMBOL res 1136 -192 R0
SYMATTR InstName R6
SYMATTR Value 10k
SYMBOL nmos 464 -48 R0
SYMATTR InstName M1
SYMATTR Value AON6242
SYMBOL voltage -208 288 R0
WINDOW 123 0 0 Left 0
WINDOW 39 0 0 Left 0
SYMATTR InstName V1
SYMATTR Value 5
SYMBOL AutoGenerated\\LM3478_TRANS 144 144 R0
SYMATTR InstName U1
TEXT -200 -384 Left 2 !.tran 0 20m 1u 100ns uic
TEXT -200 -344 Left 2 !.Param AG=25013 PR=1 PL=1 SR=5 SL=5
TEXT -200 -296 Left 2 !.includes LM3478_TRANS.lib
