Version 4
SHEET 1 880 680
WIRE -32 96 -96 96
WIRE 32 96 -32 96
WIRE 256 96 224 96
WIRE 256 144 256 96
WIRE 288 144 256 144
WIRE 288 160 288 144
WIRE -32 192 -32 96
WIRE 32 192 -32 192
WIRE 256 192 256 144
WIRE 256 192 224 192
WIRE -96 208 -96 96
WIRE -96 304 -96 288
WIRE -32 304 -96 304
WIRE -96 336 -96 304
FLAG -96 336 0
FLAG 288 160 0
SYMBOL userLib\\WE-SL2 128 144 R0
SYMATTR InstName U1
SYMATTR SpiceModel 9260_744225S_40u
SYMBOL current -96 208 R0
WINDOW 123 24 108 Left 2
WINDOW 39 0 0 Left 0
SYMATTR InstName I1
SYMATTR Value ""
SYMATTR Value2 AC 1
TEXT -130 360 Left 2 !.ac lin 500 10k 400meg
